@<TRIPOS>MOLECULE
mol
   44    46     1     0     0
SMALL
bcc


@<TRIPOS>ATOM
      1 C1          -0.5340    -2.3910    -4.1450 c3         1 mol       0.156100
      2 N1           0.0440    -2.3370    -2.7990 n3         1 mol      -0.738600
      3 C2           1.3530    -2.9860    -2.7890 c3         1 mol       0.156100
      4 C3           0.0990    -0.9370    -2.3400 c3         1 mol       0.173802
      5 C4           0.7340    -0.7150    -0.9510 c3         1 mol      -0.056200
      6 C5           0.4260     0.6860    -0.4750 c2         1 mol      -0.146200
      7 C6          -0.3330     1.0940     0.5710 ce         1 mol      -0.015400
      8 C7          -0.4940     2.5720     0.7590 ca         1 mol      -0.042300
      9 C8          -0.7850     3.3590    -0.3810 ca         1 mol      -0.117000
     10 C9          -0.9340     4.7440    -0.3080 ca         1 mol      -0.134500
     11 C10         -0.8260     5.3790     0.9180 ca         1 mol      -0.126500
     12 C11         -0.5840     4.6230     2.0640 ca         1 mol      -0.134000
     13 C12         -0.4100     3.2200     2.0090 ca         1 mol      -0.059800
     14 C13         -0.2060     2.5320     3.3450 c3         1 mol      -0.031600
     15 C14          0.4800     1.1660     3.3550 c3         1 mol      -0.031600
     16 C15         -0.4440     0.0850     2.8540 ca         1 mol      -0.059800
     17 C16         -0.8940    -0.9170     3.7290 ca         1 mol      -0.134000
     18 C17         -1.7710    -1.9040     3.2830 ca         1 mol      -0.126500
     19 C18         -2.2240    -1.8880     1.9670 ca         1 mol      -0.134500
     20 C19         -1.7890    -0.8910     1.0920 ca         1 mol      -0.117000
     21 C20         -0.8750     0.0860     1.5160 ca         1 mol      -0.042300
     22 H1          -0.6650    -3.4290    -4.4680 h1         1 mol       0.031033
     23 H2           0.0930    -1.8770    -4.8830 h1         1 mol       0.031033
     24 H3          -1.5290    -1.9310    -4.1610 h1         1 mol       0.031033
     25 H4           2.0950    -2.4310    -3.3740 h1         1 mol       0.031033
     26 H5           1.2830    -4.0010    -3.1980 h1         1 mol       0.031033
     27 H6           1.7240    -3.1000    -1.7660 h1         1 mol       0.031033
     28 H7          -0.9330    -0.5590    -2.3090 h1         1 mol       0.029700
     29 H8           0.6370    -0.3180    -3.0730 h1         1 mol       0.029700
     30 H9           1.8240    -0.8200    -1.0180 hc         1 mol       0.063200
     31 H10          0.3950    -1.4810    -0.2510 hc         1 mol       0.063200
     32 H11          0.9000     1.4410    -1.1030 ha         1 mol       0.126000
     33 H12         -0.9080     2.8880    -1.3550 ha         1 mol       0.135500
     34 H13         -1.1400     5.3170    -1.2070 ha         1 mol       0.131500
     35 H14         -0.9460     6.4560     0.9890 ha         1 mol       0.130500
     36 H15         -0.5330     5.1400     3.0210 ha         1 mol       0.129500
     37 H16         -1.1870     2.4600     3.8340 hc         1 mol       0.052450
     38 H17          0.4090     3.1940     3.9690 hc         1 mol       0.052450
     39 H18          0.7740     0.9380     4.3880 hc         1 mol       0.052450
     40 H19          1.4090     1.1750     2.7730 hc         1 mol       0.052450
     41 H20         -0.5630    -0.9330     4.7650 ha         1 mol       0.129500
     42 H21         -2.1040    -2.6830     3.9640 ha         1 mol       0.130500
     43 H22         -2.9060    -2.6580     1.6160 ha         1 mol       0.131500
     44 H23         -2.1430    -0.9000     0.0640 ha         1 mol       0.135500
@<TRIPOS>BOND
     1     1     2 1   
     2     1    22 1   
     3     1    23 1   
     4     1    24 1   
     5     2     3 1   
     6     2     4 1   
     7     3    25 1   
     8     3    26 1   
     9     3    27 1   
    10     4     5 1   
    11     4    28 1   
    12     4    29 1   
    13     5     6 1   
    14     5    30 1   
    15     5    31 1   
    16     6     7 2   
    17     6    32 1   
    18     7     8 1   
    19     7    21 1   
    20     8     9 ar  
    21     8    13 ar  
    22     9    10 ar  
    23     9    33 1   
    24    10    11 ar  
    25    10    34 1   
    26    11    12 ar  
    27    11    35 1   
    28    12    13 ar  
    29    12    36 1   
    30    13    14 1   
    31    14    15 1   
    32    14    37 1   
    33    14    38 1   
    34    15    16 1   
    35    15    39 1   
    36    15    40 1   
    37    16    17 ar  
    38    16    21 ar  
    39    17    18 ar  
    40    17    41 1   
    41    18    19 ar  
    42    18    42 1   
    43    19    20 ar  
    44    19    43 1   
    45    20    21 ar  
    46    20    44 1   
@<TRIPOS>SUBSTRUCTURE
     1 mol         1 TEMP              0 ****  ****    0 ROOT
