@<TRIPOS>MOLECULE
mol
   38    39     1     0     0
SMALL
bcc


@<TRIPOS>ATOM
      1 C1           1.8890    -2.5640    -0.7400 c3         1 mol      -0.096100
      2 C2           2.1030    -1.8640     0.6030 c3         1 mol       0.168500
      3 C3           3.4490    -2.3000     1.1930 c3         1 mol      -0.096100
      4 N1           1.0680    -2.1810     1.5840 n7         1 mol      -0.834200
      5 C4          -0.3160    -1.8330     1.2490 c3         1 mol       0.141800
      6 C5          -0.7720    -0.3780     1.5030 c3         1 mol       0.097100
      7 O1          -0.4360     0.0190     2.8410 oh         1 mol      -0.586800
      8 C6          -0.2580     0.6730     0.5120 c3         1 mol       0.091400
      9 O2          -0.4990     0.2560    -0.8280 os         1 mol      -0.322900
     10 C7          -0.1030     1.1030    -1.8300 ca         1 mol       0.176100
     11 C8           0.4760     2.3680    -1.6350 ca         1 mol      -0.241900
     12 C9           0.8400     3.1750    -2.7150 ca         1 mol      -0.077090
     13 C10          0.6420     2.7550    -4.0310 ca         1 mol      -0.177008
     14 C11          0.0680     1.4950    -4.2210 ca         1 mol      -0.021200
     15 N2          -0.2420     0.8330    -5.3890 na         1 mol      -0.192400
     16 C12         -0.7930    -0.3880    -5.1090 cc         1 mol      -0.123100
     17 C13         -0.8440    -0.5200    -3.7400 cd         1 mol      -0.158200
     18 C14         -0.3040     0.6660    -3.1610 ca         1 mol      -0.121800
     19 H1           0.9970    -2.1950    -1.2540 hc         1 mol       0.037533
     20 H2           1.7900    -3.6480    -0.6150 hc         1 mol       0.037533
     21 H3           2.7370    -2.3810    -1.4090 hc         1 mol       0.037533
     22 H4           2.1580    -0.7850     0.4350 h1         1 mol       0.046700
     23 H5           3.4350    -3.3540     1.4930 hc         1 mol       0.037533
     24 H6           4.2570    -2.1720     0.4650 hc         1 mol       0.037533
     25 H7           3.7010    -1.7010     2.0760 hc         1 mol       0.037533
     26 H8           1.3090    -1.8650     2.5200 hn         1 mol       0.357800
     27 H9          -0.9230    -2.4600     1.9150 h1         1 mol       0.068700
     28 H10         -0.5880    -2.1560     0.2400 h1         1 mol       0.068700
     29 H11         -1.8680    -0.3790     1.4430 h1         1 mol       0.093700
     30 H12          0.5340     0.0260     2.8980 ho         1 mol       0.394000
     31 H13         -0.7900     1.6110     0.7160 h1         1 mol       0.046700
     32 H14          0.8080     0.8580     0.6820 h1         1 mol       0.046700
     33 H15          0.6530     2.7620    -0.6390 ha         1 mol       0.134000
     34 H16          1.2830     4.1510    -2.5280 ha         1 mol       0.130000
     35 H17          0.9230     3.3870    -4.8670 ha         1 mol       0.134000
     36 H18         -0.0850     1.2030    -6.3150 hn         1 mol       0.298700
     37 H19         -1.1010    -1.0550    -5.9030 h4         1 mol       0.166000
     38 H20         -1.2280    -1.3750    -3.1990 ha         1 mol       0.163000
@<TRIPOS>BOND
     1     1     2 1   
     2     1    19 1   
     3     1    20 1   
     4     1    21 1   
     5     2     3 1   
     6     2     4 1   
     7     2    22 1   
     8     3    23 1   
     9     3    24 1   
    10     3    25 1   
    11     4     5 1   
    12     4    26 1   
    13     5     6 1   
    14     5    27 1   
    15     5    28 1   
    16     6     7 1   
    17     6     8 1   
    18     6    29 1   
    19     7    30 1   
    20     8     9 1   
    21     8    31 1   
    22     8    32 1   
    23     9    10 1   
    24    10    11 ar  
    25    10    18 ar  
    26    11    12 ar  
    27    11    33 1   
    28    12    13 ar  
    29    12    34 1   
    30    13    14 ar  
    31    13    35 1   
    32    14    15 1   
    33    14    18 ar  
    34    15    16 1   
    35    15    36 1   
    36    16    17 2   
    37    16    37 1   
    38    17    18 1   
    39    17    38 1   
@<TRIPOS>SUBSTRUCTURE
     1 mol         1 TEMP              0 ****  ****    0 ROOT
