@<TRIPOS>MOLECULE
mol
   20    20     1     0     0
SMALL
bcc


@<TRIPOS>ATOM
      1 C1           2.9620    -0.3980    -0.9990 c3         1 mol      -0.178100
      2 C2           1.6340     0.0430    -0.4320 c          1 mol       0.665100
      3 O1           1.4370     0.0240     0.7780 o          1 mol      -0.593100
      4 N1           0.7560     0.4700    -1.4110 ns         1 mol      -0.472100
      5 C3          -0.5720     0.9130    -1.2410 ca         1 mol       0.035600
      6 C4          -1.2540     1.3360    -2.3900 ca         1 mol      -0.134500
      7 C5          -2.5820     1.7610    -2.3150 ca         1 mol      -0.158000
      8 C6          -3.2360     1.7490    -1.0920 ca         1 mol       0.096100
      9 O2          -4.5470     2.1190    -1.0680 oh         1 mol      -0.499100
     10 C7          -2.5730     1.3530     0.0630 ca         1 mol      -0.158000
     11 C8          -1.2390     0.9360    -0.0130 ca         1 mol      -0.134500
     12 H1           3.6720     0.4310    -0.9370 hc         1 mol       0.068367
     13 H2           2.8690    -0.7180    -2.0400 hc         1 mol       0.068367
     14 H3           3.3360    -1.2460    -0.4180 hc         1 mol       0.068367
     15 H4           1.1010     0.4740    -2.3620 hn         1 mol       0.313500
     16 H5          -0.7660     1.3380    -3.3610 ha         1 mol       0.153900
     17 H6          -3.1060     2.0860    -3.2080 ha         1 mol       0.143590
     18 H7          -4.9270     1.8390    -0.2180 ho         1 mol       0.418009
     19 H8          -3.0680     1.3610     1.0290 ha         1 mol       0.143500
     20 H9          -0.7520     0.6250     0.9060 ha         1 mol       0.153000
@<TRIPOS>BOND
     1     1     2 1   
     2     1    12 1   
     3     1    13 1   
     4     1    14 1   
     5     2     3 2   
     6     2     4 1   
     7     4     5 1   
     8     4    15 1   
     9     5     6 ar  
    10     5    11 ar  
    11     6     7 ar  
    12     6    16 1   
    13     7     8 ar  
    14     7    17 1   
    15     8     9 1   
    16     8    10 ar  
    17     9    18 1   
    18    10    11 ar  
    19    10    19 1   
    20    11    20 1   
@<TRIPOS>SUBSTRUCTURE
     1 mol         1 TEMP              0 ****  ****    0 ROOT
