@<TRIPOS>MOLECULE
mol
   42    45     1     0     0
SMALL
bcc


@<TRIPOS>ATOM
      1 C1           2.4160    -3.2690     3.4530 ca         1 mol      -0.117000
      2 C2           1.2950    -2.6450     3.9940 ca         1 mol      -0.133000
      3 C3           0.9280    -1.3700     3.5600 ca         1 mol      -0.110000
      4 C4           1.6780    -0.6990     2.5770 ca         1 mol      -0.106300
      5 C5           2.7890    -1.3580     2.0220 ca         1 mol      -0.110000
      6 C6           3.1620    -2.6270     2.4680 ca         1 mol      -0.130000
      7 C7           1.2290     0.6860     2.1070 c3         1 mol       0.154600
      8 C8           0.3720     0.5860     0.8440 ca         1 mol      -0.105300
      9 C9          -1.0270     0.6090     0.9470 ca         1 mol      -0.115500
     10 C10         -1.8330     0.5210    -0.1950 ca         1 mol      -0.118500
     11 C11         -1.2740     0.4000    -1.4770 cp         1 mol      -0.027000
     12 C12          0.1260     0.3450    -1.5680 ca         1 mol      -0.118500
     13 C13          0.9360     0.4260    -0.4300 ca         1 mol      -0.115500
     14 C14         -2.1200     0.3380    -2.6870 cp         1 mol      -0.043000
     15 C15         -1.7830     1.0610    -3.8460 ca         1 mol      -0.116500
     16 C16         -2.5720     1.0000    -4.9980 ca         1 mol      -0.130500
     17 C17         -3.7230     0.2190    -5.0130 ca         1 mol      -0.125000
     18 C18         -4.0840    -0.5010    -3.8770 ca         1 mol      -0.130500
     19 C19         -3.2890    -0.4430    -2.7280 ca         1 mol      -0.116500
     20 N1           2.3280     1.6740     2.0040 na         1 mol      -0.205900
     21 C20          2.3450     2.8190     1.2420 cc         1 mol      -0.253600
     22 C21          3.5560     3.4150     1.4990 cd         1 mol       0.288200
     23 N2           4.2430     2.7180     2.4540 nd         1 mol      -0.670000
     24 C22          3.4650     1.7080     2.7720 cc         1 mol       0.390400
     25 H1           2.7060    -4.2600     3.7940 ha         1 mol       0.135000
     26 H2           0.7050    -3.1530     4.7520 ha         1 mol       0.136500
     27 H3           0.0430    -0.9070     3.9930 ha         1 mol       0.138000
     28 H4           3.3860    -0.8840     1.2440 ha         1 mol       0.138000
     29 H5           4.0350    -3.1160     2.0420 ha         1 mol       0.136500
     30 H6           0.6100     1.1290     2.9030 h1         1 mol       0.073700
     31 H7          -1.5090     0.7000     1.9190 ha         1 mol       0.138500
     32 H8          -2.9140     0.5640    -0.0710 ha         1 mol       0.139500
     33 H9           0.6080     0.2290    -2.5370 ha         1 mol       0.139500
     34 H10          2.0160     0.3810    -0.5570 ha         1 mol       0.138500
     35 H11         -0.8980     1.6940    -3.8590 ha         1 mol       0.135500
     36 H12         -2.2860     1.5660    -5.8810 ha         1 mol       0.133500
     37 H13         -4.3380     0.1710    -5.9080 ha         1 mol       0.133000
     38 H14         -4.9820    -1.1130    -3.8850 ha         1 mol       0.133500
     39 H15         -3.5860    -1.0310    -1.8620 ha         1 mol       0.135500
     40 H16          1.5340     3.1010     0.5830 h4         1 mol       0.176000
     41 H17          3.9590     4.3180     1.0600 h4         1 mol       0.041100
     42 H18          3.6880     0.9720     3.5350 h5         1 mol       0.063100
@<TRIPOS>BOND
     1     1     2 ar  
     2     1     6 ar  
     3     1    25 1   
     4     2     3 ar  
     5     2    26 1   
     6     3     4 ar  
     7     3    27 1   
     8     4     5 ar  
     9     4     7 1   
    10     5     6 ar  
    11     5    28 1   
    12     6    29 1   
    13     7     8 1   
    14     7    20 1   
    15     7    30 1   
    16     8     9 ar  
    17     8    13 ar  
    18     9    10 ar  
    19     9    31 1   
    20    10    11 ar  
    21    10    32 1   
    22    11    12 ar  
    23    11    14 1   
    24    12    13 ar  
    25    12    33 1   
    26    13    34 1   
    27    14    15 ar  
    28    14    19 ar  
    29    15    16 ar  
    30    15    35 1   
    31    16    17 ar  
    32    16    36 1   
    33    17    18 ar  
    34    17    37 1   
    35    18    19 ar  
    36    18    38 1   
    37    19    39 1   
    38    20    21 1   
    39    20    24 1   
    40    21    22 2   
    41    21    40 1   
    42    22    23 1   
    43    22    41 1   
    44    23    24 2   
    45    24    42 1   
@<TRIPOS>SUBSTRUCTURE
     1 mol         1 TEMP              0 ****  ****    0 ROOT
