@<TRIPOS>MOLECULE
mol
   33    34     1     0     0
SMALL
bcc


@<TRIPOS>ATOM
      1 C1          -0.7430    -0.9730     3.9900 c3         1 mol      -0.098100
      2 C2           0.4340    -1.6440     4.6820 c3         1 mol      -0.069400
      3 C3           1.4710    -2.2580     3.7380 c3         1 mol      -0.035300
      4 S1           2.6160    -1.0660     2.9600 ss         1 mol      -0.179000
      5 C4           1.6370    -0.4860     1.5840 ca         1 mol       0.015901
      6 C5           1.0580     0.7850     1.6790 ca         1 mol      -0.139000
      7 C6           0.2880     1.3090     0.6370 ca         1 mol      -0.061000
      8 C7           0.1440     0.5540    -0.5300 ca         1 mol       0.070400
      9 C8           0.7540    -0.6900    -0.6290 ca         1 mol      -0.056200
     10 C9           1.5050    -1.2540     0.4120 ca         1 mol      -0.148000
     11 N1           0.4390    -1.1080    -1.9020 na         1 mol      -0.272300
     12 C10         -0.3360    -0.1390    -2.4980 cc         1 mol       0.464400
     13 N2          -0.5330     0.8600    -1.6740 nd         1 mol      -0.588100
     14 N3          -0.7900    -0.2570    -3.7840 ns         1 mol      -0.438400
     15 C11         -1.5900     0.7000    -4.3530 c          1 mol       0.747100
     16 O1          -2.0610     1.7020    -3.8420 o          1 mol      -0.587000
     17 O2          -1.8170     0.3470    -5.6520 os         1 mol      -0.430900
     18 C12         -2.6470     1.2660    -6.3700 c3         1 mol       0.137700
     19 H1          -0.9910    -1.4580     3.0410 hc         1 mol       0.040033
     20 H2          -1.6300    -1.0160     4.6300 hc         1 mol       0.040033
     21 H3          -0.5390     0.0840     3.8060 hc         1 mol       0.040033
     22 H4           0.0300    -2.4600     5.2940 hc         1 mol       0.052700
     23 H5           0.9030    -0.9430     5.3840 hc         1 mol       0.052700
     24 H6           2.1080    -2.9200     4.3360 h1         1 mol       0.066200
     25 H7           0.9950    -2.8860     2.9790 h1         1 mol       0.066200
     26 H8           1.1890     1.3820     2.5780 ha         1 mol       0.144000
     27 H9          -0.1800     2.2840     0.7140 ha         1 mol       0.150000
     28 H10          1.9800    -2.2240     0.3110 ha         1 mol       0.138000
     29 H11          0.7340    -1.9720    -2.3290 hn         1 mol       0.333700
     30 H12         -0.5420    -1.0390    -4.3660 hn         1 mol       0.367500
     31 H13         -3.6980     1.0270    -6.1850 h1         1 mol       0.058700
     32 H14         -2.4410     2.3100    -6.1090 h1         1 mol       0.058700
     33 H15         -2.4430     1.1440    -7.4380 h1         1 mol       0.058700
@<TRIPOS>BOND
     1     1     2 1   
     2     1    19 1   
     3     1    20 1   
     4     1    21 1   
     5     2     3 1   
     6     2    22 1   
     7     2    23 1   
     8     3     4 1   
     9     3    24 1   
    10     3    25 1   
    11     4     5 1   
    12     5     6 ar  
    13     5    10 ar  
    14     6     7 ar  
    15     6    26 1   
    16     7     8 ar  
    17     7    27 1   
    18     8     9 ar  
    19     8    13 1   
    20     9    10 ar  
    21     9    11 1   
    22    10    28 1   
    23    11    12 1   
    24    11    29 1   
    25    12    13 2   
    26    12    14 1   
    27    14    15 1   
    28    14    30 1   
    29    15    16 2   
    30    15    17 1   
    31    17    18 1   
    32    18    31 1   
    33    18    32 1   
    34    18    33 1   
@<TRIPOS>SUBSTRUCTURE
     1 mol         1 TEMP              0 ****  ****    0 ROOT
