@<TRIPOS>MOLECULE
mol
   61    63     1     0     0
SMALL
bcc


@<TRIPOS>ATOM
      1 C1           0.7200     3.3280     1.6870 c3         1 mol       0.106700
      2 O1           1.8810     2.5820     1.3380 os         1 mol      -0.346901
      3 C2           2.5410     2.8520     0.1690 ca         1 mol       0.158100
      4 C3           2.2440     3.9460    -0.6610 ca         1 mol      -0.206000
      5 C4           3.0040     4.2120    -1.8060 ca         1 mol      -0.069000
      6 C5           4.0600     3.3780    -2.1450 ca         1 mol      -0.028600
      7 Cl1          5.0000     3.7110    -3.5460 cl         1 mol      -0.084400
      8 C6           4.3580     2.2770    -1.3520 ca         1 mol      -0.043000
      9 C7           3.6090     1.9990    -0.1900 ca         1 mol      -0.162600
     10 C8           4.0430     0.7810     0.5730 c          1 mol       0.674700
     11 O2           5.0360     0.1560     0.2040 o          1 mol      -0.610100
     12 N1           3.3000     0.3760     1.6610 ns         1 mol      -0.545900
     13 C9           3.6140    -0.8710     2.3360 c3         1 mol       0.090000
     14 C10          2.8420    -1.0970     3.6370 c3         1 mol      -0.085100
     15 C11          1.3850    -1.4370     3.4210 ca         1 mol      -0.003300
     16 C12          0.4030    -0.4520     3.5800 ca         1 mol      -0.165000
     17 C13         -0.9380    -0.7510     3.3440 ca         1 mol       0.000000
     18 C14         -1.3030    -2.0320     2.9190 ca         1 mol      -0.413500
     19 C15         -0.3430    -3.0390     2.8000 ca         1 mol       0.000000
     20 C16          1.0000    -2.7360     3.0450 ca         1 mol      -0.165000
     21 S1          -3.0110    -2.3680     2.5740 sy         1 mol       1.528900
     22 O3          -3.2430    -3.7680     2.8760 o          1 mol      -0.642800
     23 O4          -3.8250    -1.3460     3.1930 o          1 mol      -0.642800
     24 N2          -3.2000    -2.2530     0.9210 ns         1 mol      -0.671300
     25 C17         -2.4840    -1.4150     0.0790 c          1 mol       0.796100
     26 O5          -1.6880    -0.5820     0.4660 o          1 mol      -0.654100
     27 N3          -2.7400    -1.6630    -1.2430 ns         1 mol      -0.536900
     28 C18         -1.9120    -1.0890    -2.3000 c3         1 mol       0.100700
     29 C19         -1.4540    -2.1940    -3.2670 c3         1 mol      -0.094900
     30 C20         -2.0970    -2.1450    -4.6490 c3         1 mol      -0.080900
     31 C21         -3.5330    -1.6590    -4.5830 c3         1 mol      -0.078400
     32 C22         -3.6010    -0.2250    -4.0740 c3         1 mol      -0.080900
     33 C23         -2.5940     0.1070    -2.9710 c3         1 mol      -0.094900
     34 H1           0.6020     3.2570     2.7730 h1         1 mol       0.058367
     35 H2           0.7860     4.3940     1.4570 h1         1 mol       0.058367
     36 H3          -0.1620     2.8800     1.2200 h1         1 mol       0.058367
     37 H4           1.4330     4.6340    -0.4480 ha         1 mol       0.148000
     38 H5           2.7690     5.0760    -2.4220 ha         1 mol       0.151000
     39 H6           5.1860     1.6290    -1.6350 ha         1 mol       0.175000
     40 H7           2.4090     0.8350     1.8260 hn         1 mol       0.321500
     41 H8           4.6870    -0.8540     2.5610 h1         1 mol       0.067200
     42 H9           3.4440    -1.6860     1.6230 h1         1 mol       0.067200
     43 H10          2.9290    -0.2170     4.2870 hc         1 mol       0.068700
     44 H11          3.3060    -1.9260     4.1880 hc         1 mol       0.068700
     45 H12          0.6770     0.5570     3.8770 ha         1 mol       0.149000
     46 H13         -1.6880     0.0300     3.4510 ha         1 mol       0.161500
     47 H14         -0.6240    -4.0490     2.5110 ha         1 mol       0.161500
     48 H15          1.7490    -3.5190     2.9370 ha         1 mol       0.149000
     49 H16         -3.6260    -3.0870     0.5390 hn         1 mol       0.331500
     50 H17         -3.5510    -2.2070    -1.4900 hn         1 mol       0.302500
     51 H18         -1.0060    -0.7050    -1.8140 h1         1 mol       0.083700
     52 H19         -1.6380    -3.1820    -2.8240 hc         1 mol       0.054700
     53 H20         -0.3670    -2.1300    -3.3980 hc         1 mol       0.054700
     54 H21         -1.5150    -1.4810    -5.2990 hc         1 mol       0.043450
     55 H22         -2.0570    -3.1410    -5.1050 hc         1 mol       0.043450
     56 H23         -3.9940    -1.7150    -5.5770 hc         1 mol       0.038700
     57 H24         -4.1180    -2.3140    -3.9270 hc         1 mol       0.038700
     58 H25         -3.4190     0.4580    -4.9160 hc         1 mol       0.043450
     59 H26         -4.6210    -0.0100    -3.7360 hc         1 mol       0.043450
     60 H27         -3.0800     0.7450    -2.2210 hc         1 mol       0.054700
     61 H28         -1.8070     0.7290    -3.4200 hc         1 mol       0.054700
@<TRIPOS>BOND
     1     1     2 1   
     2     1    34 1   
     3     1    35 1   
     4     1    36 1   
     5     2     3 1   
     6     3     4 ar  
     7     3     9 ar  
     8     4     5 ar  
     9     4    37 1   
    10     5     6 ar  
    11     5    38 1   
    12     6     7 1   
    13     6     8 ar  
    14     8     9 ar  
    15     8    39 1   
    16     9    10 1   
    17    10    11 2   
    18    10    12 1   
    19    12    13 1   
    20    12    40 1   
    21    13    14 1   
    22    13    41 1   
    23    13    42 1   
    24    14    15 1   
    25    14    43 1   
    26    14    44 1   
    27    15    16 ar  
    28    15    20 ar  
    29    16    17 ar  
    30    16    45 1   
    31    17    18 ar  
    32    17    46 1   
    33    18    19 ar  
    34    18    21 1   
    35    19    20 ar  
    36    19    47 1   
    37    20    48 1   
    38    21    22 2   
    39    21    23 2   
    40    21    24 1   
    41    24    25 1   
    42    24    49 1   
    43    25    26 2   
    44    25    27 1   
    45    27    28 1   
    46    27    50 1   
    47    28    29 1   
    48    28    33 1   
    49    28    51 1   
    50    29    30 1   
    51    29    52 1   
    52    29    53 1   
    53    30    31 1   
    54    30    54 1   
    55    30    55 1   
    56    31    32 1   
    57    31    56 1   
    58    31    57 1   
    59    32    33 1   
    60    32    58 1   
    61    32    59 1   
    62    33    60 1   
    63    33    61 1   
@<TRIPOS>SUBSTRUCTURE
     1 mol         1 TEMP              0 ****  ****    0 ROOT
