@<TRIPOS>MOLECULE
mol
   38    39     1     0     0
SMALL
bcc


@<TRIPOS>ATOM
      1 C1          -0.3010    -3.1210    -2.7090 c3         1 mol       0.158600
      2 N1          -0.4420    -1.6670    -2.6080 n3         1 mol      -0.741600
      3 C2          -0.7530    -1.1040    -3.9200 c3         1 mol       0.158600
      4 C3          -1.4480    -1.3280    -1.5890 c3         1 mol       0.166800
      5 C4          -1.5870     0.1610    -1.2210 c3         1 mol      -0.059400
      6 C5          -0.4260     0.8700    -0.4780 c3         1 mol      -0.064700
      7 C6           0.8790     0.9460    -1.2630 ca         1 mol      -0.073300
      8 C7           1.0900     2.0040    -2.1650 ca         1 mol      -0.115500
      9 C8           2.2710     2.0850    -2.9070 ca         1 mol      -0.125500
     10 C9           3.2500     1.1070    -2.7570 ca         1 mol       0.016400
     11 Cl1          4.7010     1.2030    -3.6780 cl         1 mol      -0.096400
     12 C10          3.0600     0.0500    -1.8730 ca         1 mol      -0.125500
     13 C11          1.8800    -0.0290    -1.1290 ca         1 mol      -0.115500
     14 C12         -0.2520     0.4670     0.9880 ca         1 mol       0.412600
     15 C13          0.2120     1.4130     1.9080 ca         1 mol      -0.240300
     16 C14          0.3920     1.0410     3.2370 ca         1 mol      -0.091000
     17 C15          0.1200    -0.2650     3.6200 ca         1 mol      -0.247300
     18 C16         -0.3270    -1.1460     2.6530 ca         1 mol       0.396200
     19 N2          -0.5210    -0.8090     1.3590 nb         1 mol      -0.668000
     20 H1          -1.2310    -3.6040    -3.0310 h1         1 mol       0.029200
     21 H2           0.4890    -3.3850    -3.4200 h1         1 mol       0.029200
     22 H3          -0.0060    -3.5500    -1.7450 h1         1 mol       0.029200
     23 H4           0.0080    -1.3970    -4.6530 h1         1 mol       0.029200
     24 H5          -0.7410    -0.0110    -3.9000 h1         1 mol       0.029200
     25 H6          -1.7290    -1.4350    -4.2910 h1         1 mol       0.029200
     26 H7          -1.2390    -1.8980    -0.6790 h1         1 mol       0.043700
     27 H8          -2.4330    -1.6770    -1.9310 h1         1 mol       0.043700
     28 H9          -2.4850     0.2490    -0.5930 hc         1 mol       0.052200
     29 H10         -1.8220     0.7310    -2.1280 hc         1 mol       0.052200
     30 H11         -0.7800     1.9120    -0.4060 hc         1 mol       0.057700
     31 H12          0.3290     2.7700    -2.3020 ha         1 mol       0.144000
     32 H13          2.4170     2.9080    -3.6010 ha         1 mol       0.147000
     33 H14          3.8150    -0.7240    -1.7640 ha         1 mol       0.147000
     34 H15          1.7320    -0.8790    -0.4640 ha         1 mol       0.144000
     35 H16          0.4360     2.4280     1.5940 ha         1 mol       0.144000
     36 H17          0.7480     1.7640     3.9650 ha         1 mol       0.139000
     37 H18          0.2580    -0.5900     4.6450 ha         1 mol       0.144000
     38 H19         -0.5460    -2.1810     2.8970 h4         1 mol       0.021100
@<TRIPOS>BOND
     1     1     2 1   
     2     1    20 1   
     3     1    21 1   
     4     1    22 1   
     5     2     3 1   
     6     2     4 1   
     7     3    23 1   
     8     3    24 1   
     9     3    25 1   
    10     4     5 1   
    11     4    26 1   
    12     4    27 1   
    13     5     6 1   
    14     5    28 1   
    15     5    29 1   
    16     6     7 1   
    17     6    14 1   
    18     6    30 1   
    19     7     8 ar  
    20     7    13 ar  
    21     8     9 ar  
    22     8    31 1   
    23     9    10 ar  
    24     9    32 1   
    25    10    11 1   
    26    10    12 ar  
    27    12    13 ar  
    28    12    33 1   
    29    13    34 1   
    30    14    15 ar  
    31    14    19 ar  
    32    15    16 ar  
    33    15    35 1   
    34    16    17 ar  
    35    16    36 1   
    36    17    18 ar  
    37    17    37 1   
    38    18    19 ar  
    39    18    38 1   
@<TRIPOS>SUBSTRUCTURE
     1 mol         1 TEMP              0 ****  ****    0 ROOT
