@<TRIPOS>MOLECULE
mol
   56    59     1     0     0
SMALL
bcc


@<TRIPOS>ATOM
      1 O1          -3.3890     0.7630     1.0220 oh         1 mol      -0.601801
      2 C1          -3.9600    -0.3240     1.7510 c3         1 mol       0.134400
      3 C2          -3.1490    -0.5740     3.0320 c3         1 mol       0.125800
      4 N1          -1.7290    -0.8050     2.7170 n3         1 mol      -0.743600
      5 C3          -1.4770    -2.1650     2.1880 c3         1 mol       0.153300
      6 C4           0.0290    -2.5560     2.1430 c3         1 mol       0.153800
      7 N2           0.9780    -1.4290     2.2670 n3         1 mol      -0.735600
      8 C5           0.9090    -0.5100     1.1150 c3         1 mol       0.173800
      9 C6           1.5570    -1.0960    -0.1410 c3         1 mol      -0.118400
     10 C7           1.3480    -0.1530    -1.3360 c3         1 mol       0.034300
     11 N3           2.0940    -0.6310    -2.5210 na         1 mol      -0.165100
     12 C8           3.4370    -0.1630    -2.6660 ca         1 mol       0.076700
     13 C9           4.0780     0.6280    -1.6820 ca         1 mol      -0.172000
     14 C10          5.3870     1.1040    -1.8220 ca         1 mol      -0.095000
     15 C11          6.1170     0.7910    -2.9550 ca         1 mol      -0.148000
     16 C12          5.5310     0.0020    -3.9370 ca         1 mol      -0.082000
     17 C13          4.2100    -0.4740    -3.8030 ca         1 mol      -0.032100
     18 S1           3.6220    -1.4560    -5.1590 ss         1 mol      -0.142800
     19 C14          2.0420    -2.0150    -4.5740 ca         1 mol       0.002900
     20 C15          1.3930    -2.9480    -5.4080 ca         1 mol      -0.098000
     21 C16          0.1380    -3.4520    -5.0890 ca         1 mol      -0.101000
     22 C17         -0.4950    -3.0310    -3.9220 ca         1 mol      -0.142300
     23 C18          0.1640    -2.1030    -3.0900 ca         1 mol      -0.135000
     24 C19          1.4420    -1.5640    -3.3810 ca         1 mol       0.073700
     25 C20         -1.8610    -3.5650    -3.5680 c3         1 mol       0.687200
     26 F1          -1.8770    -4.9220    -3.4520 f          1 mol      -0.237633
     27 F2          -2.3440    -3.0890    -2.3850 f          1 mol      -0.237633
     28 F3          -2.8000    -3.2580    -4.5050 f          1 mol      -0.237633
     29 C21          0.6590    -0.7160     3.5290 c3         1 mol       0.153800
     30 C22         -0.8510    -0.5590     3.8720 c3         1 mol       0.153300
     31 H1          -2.4240     0.6460     1.1240 ho         1 mol       0.412000
     32 H2          -4.9940    -0.0630     1.9980 h1         1 mol       0.045200
     33 H3          -3.9750    -1.2010     1.0980 h1         1 mol       0.045200
     34 H4          -3.5800    -1.3970     3.6130 h1         1 mol       0.044200
     35 H5          -3.2290     0.3370     3.6400 h1         1 mol       0.044200
     36 H6          -1.8720    -2.2210     1.1670 h1         1 mol       0.047450
     37 H7          -2.0040    -2.9190     2.7880 h1         1 mol       0.047450
     38 H8           0.2300    -3.1510     1.2460 h1         1 mol       0.046700
     39 H9           0.2280    -3.2420     2.9790 h1         1 mol       0.046700
     40 H10         -0.1150    -0.1990     0.8850 h1         1 mol       0.032700
     41 H11          1.4610     0.4080     1.3560 h1         1 mol       0.032700
     42 H12          1.1390    -2.0770    -0.3810 hc         1 mol       0.060700
     43 H13          2.6260    -1.2560     0.0440 hc         1 mol       0.060700
     44 H14          0.2790    -0.0390    -1.5520 h1         1 mol       0.062200
     45 H15          1.6180     0.8770    -1.0770 h1         1 mol       0.062200
     46 H16          3.5890     0.8970    -0.7520 ha         1 mol       0.142000
     47 H17          5.8290     1.7130    -1.0380 ha         1 mol       0.137000
     48 H18          7.1350     1.1510    -3.0730 ha         1 mol       0.139000
     49 H19          6.1150    -0.2460    -4.8210 ha         1 mol       0.144000
     50 H20          1.8730    -3.2870    -6.3250 ha         1 mol       0.152000
     51 H21         -0.3400    -4.1700    -5.7520 ha         1 mol       0.156000
     52 H22         -0.3660    -1.8240    -2.1840 ha         1 mol       0.154000
     53 H23          1.1320    -1.2730     4.3490 h1         1 mol       0.046700
     54 H24          1.1450     0.2680     3.5400 h1         1 mol       0.046700
     55 H25         -1.0050     0.4590     4.2480 h1         1 mol       0.047450
     56 H26         -1.1060    -1.2500     4.6870 h1         1 mol       0.047450
@<TRIPOS>BOND
     1     1     2 1   
     2     1    31 1   
     3     2     3 1   
     4     2    32 1   
     5     2    33 1   
     6     3     4 1   
     7     3    34 1   
     8     3    35 1   
     9     4     5 1   
    10     4    30 1   
    11     5     6 1   
    12     5    36 1   
    13     5    37 1   
    14     6     7 1   
    15     6    38 1   
    16     6    39 1   
    17     7     8 1   
    18     7    29 1   
    19     8     9 1   
    20     8    40 1   
    21     8    41 1   
    22     9    10 1   
    23     9    42 1   
    24     9    43 1   
    25    10    11 1   
    26    10    44 1   
    27    10    45 1   
    28    11    12 1   
    29    11    24 1   
    30    12    13 ar  
    31    12    17 ar  
    32    13    14 ar  
    33    13    46 1   
    34    14    15 ar  
    35    14    47 1   
    36    15    16 ar  
    37    15    48 1   
    38    16    17 ar  
    39    16    49 1   
    40    17    18 1   
    41    18    19 1   
    42    19    20 ar  
    43    19    24 ar  
    44    20    21 ar  
    45    20    50 1   
    46    21    22 ar  
    47    21    51 1   
    48    22    23 ar  
    49    22    25 1   
    50    23    24 ar  
    51    23    52 1   
    52    25    26 1   
    53    25    27 1   
    54    25    28 1   
    55    29    30 1   
    56    29    53 1   
    57    29    54 1   
    58    30    55 1   
    59    30    56 1   
@<TRIPOS>SUBSTRUCTURE
     1 mol         1 TEMP              0 ****  ****    0 ROOT
