@<TRIPOS>MOLECULE
mol
   48    51     1     0     0
SMALL
bcc


@<TRIPOS>ATOM
      1 Cl1          5.1220     2.1780    -0.4360 cl         1 mol      -0.100400
      2 C1           3.4920     2.6600    -0.7180 ca         1 mol       0.042400
      3 C2           3.0730     3.9210    -0.3240 ca         1 mol      -0.154000
      4 C3           1.7590     4.2920    -0.5640 ca         1 mol      -0.097000
      5 C4           0.8730     3.3960    -1.1830 ca         1 mol      -0.177000
      6 C5           1.2550     2.1010    -1.5790 ca         1 mol       0.147600
      7 C6           2.6050     1.7740    -1.3420 ca         1 mol      -0.158000
      8 N1           0.3730     1.2070    -2.1760 nh         1 mol      -0.626000
      9 C7          -1.0930     1.4070    -2.2110 c3         1 mol       0.178800
     10 C8          -1.8590     0.2440    -1.5150 c3         1 mol       0.144800
     11 N2          -1.1440    -1.0290    -1.5620 n3         1 mol      -0.738600
     12 C9          -1.7670    -2.1930    -0.9810 c3         1 mol       0.176800
     13 C10         -1.8380    -2.0510     0.5470 c3         1 mol      -0.108400
     14 C11         -0.4800    -1.6830     1.1600 c3         1 mol       0.099000
     15 N3          -0.5750    -1.4670     2.5820 n          1 mol      -0.160800
     16 N4          -0.8770    -0.2310     3.1270 nc         1 mol      -0.228600
     17 C12         -0.9130    -0.4650     4.4020 cd         1 mol       0.004700
     18 C13         -1.1830     0.5000     5.4880 cd         1 mol      -0.135000
     19 C14         -1.1910     0.0360     6.7490 cc         1 mol      -0.071000
     20 C15         -0.9400    -1.3660     7.0410 cc         1 mol      -0.224000
     21 C16         -0.6870    -2.2230     6.0400 cd         1 mol       0.008700
     22 N5          -0.6760    -1.7550     4.7570 n          1 mol      -0.137200
     23 C17         -0.4630    -2.4400     3.5850 c          1 mol       0.629300
     24 O1          -0.2390    -3.6340     3.4380 o          1 mol      -0.600500
     25 C18         -0.3240    -1.1650    -2.7500 c3         1 mol       0.144800
     26 C19          0.8300    -0.1370    -2.6210 c3         1 mol       0.178800
     27 H1           3.7590     4.6110     0.1590 ha         1 mol       0.147000
     28 H2           1.4110     5.2800    -0.2750 ha         1 mol       0.136000
     29 H3          -0.1310     3.7650    -1.3550 ha         1 mol       0.136000
     30 H4           3.0040     0.8080    -1.6290 ha         1 mol       0.150000
     31 H5          -1.4360     2.3390    -1.7580 h1         1 mol       0.057700
     32 H6          -1.3920     1.4530    -3.2660 h1         1 mol       0.057700
     33 H7          -2.0270     0.5320    -0.4710 h1         1 mol       0.041200
     34 H8          -2.8460     0.1510    -1.9860 h1         1 mol       0.041200
     35 H9          -1.1730    -3.0900    -1.1970 h1         1 mol       0.036200
     36 H10         -2.7650    -2.3680    -1.3990 h1         1 mol       0.036200
     37 H11         -2.1890    -2.9970     0.9790 hc         1 mol       0.054700
     38 H12         -2.5860    -1.2970     0.8220 hc         1 mol       0.054700
     39 H13          0.2370    -2.4920     0.9810 h1         1 mol       0.087200
     40 H14         -0.0660    -0.7660     0.7280 h1         1 mol       0.087200
     41 H15         -1.3620     1.5330     5.2230 ha         1 mol       0.164000
     42 H16         -1.3850     0.7020     7.5840 ha         1 mol       0.144000
     43 H17         -0.9620    -1.6960     8.0740 ha         1 mol       0.155000
     44 H18         -0.4910    -3.2800     6.1850 h4         1 mol       0.177000
     45 H19          0.1160    -2.1650    -2.8350 h1         1 mol       0.041200
     46 H20         -0.9110    -0.9930    -3.6610 h1         1 mol       0.041200
     47 H21          1.5160    -0.5670    -1.8820 h1         1 mol       0.057700
     48 H22          1.3600    -0.0490    -3.5760 h1         1 mol       0.057700
@<TRIPOS>BOND
     1     1     2 1   
     2     2     3 ar  
     3     2     7 ar  
     4     3     4 ar  
     5     3    27 1   
     6     4     5 ar  
     7     4    28 1   
     8     5     6 ar  
     9     5    29 1   
    10     6     7 ar  
    11     6     8 1   
    12     7    30 1   
    13     8     9 1   
    14     8    26 1   
    15     9    10 1   
    16     9    31 1   
    17     9    32 1   
    18    10    11 1   
    19    10    33 1   
    20    10    34 1   
    21    11    12 1   
    22    11    25 1   
    23    12    13 1   
    24    12    35 1   
    25    12    36 1   
    26    13    14 1   
    27    13    37 1   
    28    13    38 1   
    29    14    15 1   
    30    14    39 1   
    31    14    40 1   
    32    15    16 1   
    33    15    23 1   
    34    16    17 2   
    35    17    18 1   
    36    17    22 1   
    37    18    19 2   
    38    18    41 1   
    39    19    20 1   
    40    19    42 1   
    41    20    21 2   
    42    20    43 1   
    43    21    22 1   
    44    21    44 1   
    45    22    23 1   
    46    23    24 2   
    47    25    26 1   
    48    25    45 1   
    49    25    46 1   
    50    26    47 1   
    51    26    48 1   
@<TRIPOS>SUBSTRUCTURE
     1 mol         1 TEMP              0 ****  ****    0 ROOT
