@<TRIPOS>MOLECULE
mol
   41    41     1     0     0
SMALL
bcc


@<TRIPOS>ATOM
      1 C1          -0.2440     2.5830     3.0670 c3         1 mol      -0.111600
      2 C2          -1.2600     2.1000     2.0340 c3         1 mol       0.171500
      3 C3          -1.0400     2.7720     0.6780 c3         1 mol      -0.111600
      4 N1          -1.3310     0.6350     1.9440 n7         1 mol      -0.823200
      5 C4          -0.0980    -0.0320     1.4690 c3         1 mol       0.119800
      6 C5          -0.3830    -1.5480     1.4210 c3         1 mol       0.111100
      7 O1          -0.8640    -1.9770     2.7040 oh         1 mol      -0.611800
      8 C6           0.8330    -2.3970     1.0320 c3         1 mol       0.125400
      9 O2           1.4940    -1.9540    -0.1490 os         1 mol      -0.333900
     10 C7           1.0020    -2.2910    -1.3800 ca         1 mol       0.121100
     11 C8          -0.2080    -2.9510    -1.6080 ca         1 mol      -0.198000
     12 C9          -0.6480    -3.1970    -2.9110 ca         1 mol      -0.101000
     13 C10          0.1230    -2.7990    -3.9980 ca         1 mol      -0.159000
     14 C11          1.3430    -2.1630    -3.7840 ca         1 mol      -0.107000
     15 C12          1.7990    -1.9080    -2.4790 ca         1 mol      -0.096300
     16 C13          3.1510    -1.2530    -2.2830 c3         1 mol      -0.003900
     17 C14          3.0610     0.1960    -1.8890 c2         1 mol      -0.156200
     18 C15          3.5230     0.6830    -0.7300 c2         1 mol      -0.226000
     19 H1          -0.3830     3.6520     3.2640 hc         1 mol       0.039867
     20 H2           0.7870     2.4390     2.7280 hc         1 mol       0.039867
     21 H3          -0.3700     2.0560     4.0200 hc         1 mol       0.039867
     22 H4          -2.2480     2.4180     2.3920 h1         1 mol       0.056700
     23 H5          -1.7360     2.3830    -0.0730 hc         1 mol       0.039867
     24 H6          -1.2130     3.8510     0.7570 hc         1 mol       0.039867
     25 H7          -0.0200     2.6260     0.3090 hc         1 mol       0.039867
     26 H8          -2.0900     0.3960     1.3020 hn         1 mol       0.358800
     27 H9           0.1910     0.3250     0.4760 h1         1 mol       0.046200
     28 H10          0.7180     0.1580     2.1740 h1         1 mol       0.046200
     29 H11         -1.1980    -1.7170     0.7100 h1         1 mol       0.053700
     30 H12         -1.3400    -1.1960     3.0580 ho         1 mol       0.423998
     31 H13          0.5810    -3.4630     0.9780 h1         1 mol       0.073200
     32 H14          1.5720    -2.3330     1.8410 h1         1 mol       0.073200
     33 H15         -0.8400    -3.2910    -0.7960 ha         1 mol       0.159000
     34 H16         -1.5970    -3.7020    -3.0750 ha         1 mol       0.133000
     35 H17         -0.2210    -2.9930    -5.0110 ha         1 mol       0.132000
     36 H18          1.9450    -1.8720    -4.6420 ha         1 mol       0.132000
     37 H19          3.7250    -1.8340    -1.5500 hc         1 mol       0.061700
     38 H20          3.7300    -1.3160    -3.2140 hc         1 mol       0.061700
     39 H21          2.5980     0.8720    -2.6040 ha         1 mol       0.119000
     40 H22          3.4360     1.7380    -0.4920 ha         1 mol       0.110500
     41 H23          3.9840     0.0360     0.0110 ha         1 mol       0.110500
@<TRIPOS>BOND
     1     1     2 1   
     2     1    19 1   
     3     1    20 1   
     4     1    21 1   
     5     2     3 1   
     6     2     4 1   
     7     2    22 1   
     8     3    23 1   
     9     3    24 1   
    10     3    25 1   
    11     4     5 1   
    12     4    26 1   
    13     5     6 1   
    14     5    27 1   
    15     5    28 1   
    16     6     7 1   
    17     6     8 1   
    18     6    29 1   
    19     7    30 1   
    20     8     9 1   
    21     8    31 1   
    22     8    32 1   
    23     9    10 1   
    24    10    11 ar  
    25    10    15 ar  
    26    11    12 ar  
    27    11    33 1   
    28    12    13 ar  
    29    12    34 1   
    30    13    14 ar  
    31    13    35 1   
    32    14    15 ar  
    33    14    36 1   
    34    15    16 1   
    35    16    17 1   
    36    16    37 1   
    37    16    38 1   
    38    17    18 2   
    39    17    39 1   
    40    18    40 1   
    41    18    41 1   
@<TRIPOS>SUBSTRUCTURE
     1 mol         1 TEMP              0 ****  ****    0 ROOT
