@<TRIPOS>MOLECULE
mol
   33    34     1     0     0
SMALL
bcc


@<TRIPOS>ATOM
      1 C1          -3.4390     3.6680     2.3820 c3         1 mol      -0.156900
      2 C2          -2.4310     3.1640     1.3940 ca         1 mol       0.488100
      3 C3          -1.2090     3.7980     1.2640 ca         1 mol      -0.416600
      4 C4          -0.3310     3.2640     0.3420 ca         1 mol       0.488100
      5 C5           1.0320     3.8540     0.1440 c3         1 mol      -0.156902
      6 N1          -0.6290     2.1660    -0.3770 nb         1 mol      -0.752000
      7 C6          -1.8480     1.6600    -0.2140 ca         1 mol       0.914900
      8 N2          -2.1950     0.4660    -0.8230 nu         1 mol      -0.844800
      9 S1          -1.3450    -0.1470    -2.0940 sy         1 mol       1.537200
     10 O1          -0.9540     0.8990    -3.0130 o          1 mol      -0.649800
     11 O2          -2.1190    -1.2770    -2.5750 o          1 mol      -0.649800
     12 C7           0.1090    -0.8260    -1.3240 ca         1 mol      -0.465500
     13 C8           1.3010    -0.1020    -1.3140 ca         1 mol       0.049000
     14 C9           2.4290    -0.6400    -0.6880 ca         1 mol      -0.245000
     15 C10          2.3970    -1.9250    -0.1350 ca         1 mol       0.245600
     16 N3           3.4850    -2.3980     0.6070 nv         1 mol      -0.852200
     17 C11          1.1880    -2.6290    -0.1350 ca         1 mol      -0.245000
     18 C12          0.0500    -2.0970    -0.7480 ca         1 mol       0.049000
     19 N4          -2.7670     2.0840     0.6590 nb         1 mol      -0.752000
     20 H1          -3.0110     3.6750     3.3900 hc         1 mol       0.059867
     21 H2          -3.7520     4.6830     2.1180 hc         1 mol       0.059867
     22 H3          -4.3270     3.0280     2.3960 hc         1 mol       0.059867
     23 H4          -0.9530     4.6650     1.8590 ha         1 mol       0.153000
     24 H5           1.7460     3.3760     0.8210 hc         1 mol       0.059867
     25 H6           1.3670     3.6970    -0.8870 hc         1 mol       0.059867
     26 H7           1.0270     4.9320     0.3310 hc         1 mol       0.059867
     27 H8          -3.1510     0.1640    -0.6940 hn         1 mol       0.470800
     28 H9           1.3500     0.8910    -1.7550 ha         1 mol       0.156000
     29 H10          3.3360    -0.0430    -0.6340 ha         1 mol       0.138500
     30 H11          4.3780    -2.0160     0.3130 hn         1 mol       0.421300
     31 H12          3.5120    -3.4100     0.6930 hn         1 mol       0.421300
     32 H13          1.1220    -3.6020     0.3450 ha         1 mol       0.138500
     33 H14         -0.8740    -2.6700    -0.7560 ha         1 mol       0.156000
@<TRIPOS>BOND
     1     1     2 1   
     2     1    20 1   
     3     1    21 1   
     4     1    22 1   
     5     2     3 ar  
     6     2    19 ar  
     7     3     4 ar  
     8     3    23 1   
     9     4     5 1   
    10     4     6 ar  
    11     5    24 1   
    12     5    25 1   
    13     5    26 1   
    14     6     7 ar  
    15     7     8 1   
    16     7    19 ar  
    17     8     9 1   
    18     8    27 1   
    19     9    10 2   
    20     9    11 2   
    21     9    12 1   
    22    12    13 ar  
    23    12    18 ar  
    24    13    14 ar  
    25    13    28 1   
    26    14    15 ar  
    27    14    29 1   
    28    15    16 1   
    29    15    17 ar  
    30    16    30 1   
    31    16    31 1   
    32    17    18 ar  
    33    17    32 1   
    34    18    33 1   
@<TRIPOS>SUBSTRUCTURE
     1 mol         1 TEMP              0 ****  ****    0 ROOT
