@<TRIPOS>MOLECULE
mol
   29    30     1     0     0
SMALL
bcc


@<TRIPOS>ATOM
      1 C1           2.4230    -1.9550     1.6980 c3         1 mol      -0.119100
      2 C2           1.6420    -1.4000     0.5140 c3         1 mol       0.213800
      3 N1           1.2640    -0.0020     0.7460 na         1 mol      -0.611100
      4 C3           2.0490     1.0690     0.3610 cc         1 mol       0.189000
      5 C4           1.7870     2.3670     0.5860 cd         1 mol      -0.337400
      6 C5           2.7570     3.3490     0.0770 c          1 mol       0.673300
      7 O1           2.3880     4.6260     0.2320 oh         1 mol      -0.561100
      8 O2           3.8190     3.0790    -0.4640 o          1 mol      -0.595000
      9 C6           0.5410     2.6730     1.3350 c          1 mol       0.605900
     10 O3           0.1960     3.8130     1.6290 o          1 mol      -0.532100
     11 C7          -0.3120     1.5360     1.7550 ca         1 mol      -0.303900
     12 C8          -1.5010     1.7730     2.4510 ca         1 mol      -0.015000
     13 C9          -2.2850     0.6950     2.8400 ca         1 mol      -0.286300
     14 C10         -1.8480    -0.5870     2.5350 ca         1 mol       0.470600
     15 C11         -2.6790    -1.7780     2.9090 c3         1 mol      -0.158400
     16 N2          -0.7000    -0.8270     1.8530 nb         1 mol      -0.716000
     17 C12          0.0680     0.2220     1.4630 ca         1 mol       0.658200
     18 H1           3.3020    -1.3400     1.9150 hc         1 mol       0.052367
     19 H2           2.7650    -2.9730     1.4820 hc         1 mol       0.052367
     20 H3           1.8080    -1.9890     2.6020 hc         1 mol       0.052367
     21 H4           0.7730    -2.0330     0.2970 h1         1 mol       0.070200
     22 H5           2.2740    -1.4630    -0.3810 h1         1 mol       0.070200
     23 H6           2.9480     0.7670    -0.1750 h4         1 mol       0.184000
     24 H7           3.1200     5.1540    -0.1450 ho         1 mol       0.440000
     25 H8          -1.8130     2.7880     2.6830 ha         1 mol       0.171000
     26 H9          -3.2160     0.8590     3.3740 ha         1 mol       0.152000
     27 H10         -3.1280    -1.6440     3.8980 hc         1 mol       0.060033
     28 H11         -3.4750    -1.9220     2.1720 hc         1 mol       0.060033
     29 H12         -2.0640    -2.6820     2.9390 hc         1 mol       0.060033
@<TRIPOS>BOND
     1     1     2 1   
     2     1    18 1   
     3     1    19 1   
     4     1    20 1   
     5     2     3 1   
     6     2    21 1   
     7     2    22 1   
     8     3     4 1   
     9     3    17 1   
    10     4     5 2   
    11     4    23 1   
    12     5     6 1   
    13     5     9 1   
    14     6     7 1   
    15     6     8 2   
    16     7    24 1   
    17     9    10 2   
    18     9    11 1   
    19    11    12 ar  
    20    11    17 ar  
    21    12    13 ar  
    22    12    25 1   
    23    13    14 ar  
    24    13    26 1   
    25    14    15 1   
    26    14    16 ar  
    27    15    27 1   
    28    15    28 1   
    29    15    29 1   
    30    16    17 ar  
@<TRIPOS>SUBSTRUCTURE
     1 mol         1 TEMP              0 ****  ****    0 ROOT
