@<TRIPOS>MOLECULE
mol
   48    51     1     0     0
SMALL
bcc


@<TRIPOS>ATOM
      1 C1           0.3360     3.1410     2.4510 c3         1 mol       0.111700
      2 O1           1.7180     2.8760     2.6470 os         1 mol      -0.324900
      3 C2           2.2030     1.6950     2.1620 ca         1 mol       0.128100
      4 C3           3.5730     1.5270     2.3100 ca         1 mol      -0.137000
      5 C4           4.1900     0.3610     1.8550 ca         1 mol      -0.141301
      6 C5           3.4720    -0.6590     1.2550 ca         1 mol       0.363600
      7 N1           4.1610    -1.7370     0.8510 nb         1 mol      -0.647000
      8 C6           3.4870    -2.7320     0.2490 ca         1 mol       0.396200
      9 C7           2.1270    -2.7050     0.0320 ca         1 mol      -0.237300
     10 C8           1.3860    -1.5880     0.4540 ca         1 mol      -0.077300
     11 C9          -0.1000    -1.5580     0.1150 c3         1 mol       0.193400
     12 O2          -0.6410    -2.8720     0.3240 oh         1 mol      -0.601800
     13 C10         -0.3230    -1.0830    -1.3610 c3         1 mol       0.155500
     14 C11         -1.5780    -1.6770    -2.0470 c3         1 mol      -0.092400
     15 C12         -2.2650    -0.5870    -2.8920 c3         1 mol      -0.065700
     16 C13         -1.2060     0.0540    -3.8080 c3         1 mol      -0.108400
     17 C14         -0.1040     0.7040    -2.9580 c3         1 mol       0.135800
     18 N2          -0.2880     0.4080    -1.5200 n3         1 mol      -0.656600
     19 C15         -1.5790     1.0050    -1.0860 c3         1 mol       0.138800
     20 C16         -2.7870     0.5060    -1.9260 c3         1 mol      -0.066500
     21 C17         -4.0170     0.0200    -1.1850 c2         1 mol      -0.153200
     22 C18         -4.1760    -0.2150     0.1250 c2         1 mol      -0.231000
     23 C19          2.0720    -0.5160     1.0900 ca         1 mol      -0.083300
     24 C20          1.4600     0.6800     1.5540 ca         1 mol      -0.196000
     25 H1           0.1250     4.1340     2.8590 h1         1 mol       0.045367
     26 H2           0.0830     3.1580     1.3860 h1         1 mol       0.045367
     27 H3          -0.2840     2.4200     2.9940 h1         1 mol       0.045367
     28 H4           4.1710     2.3060     2.7740 ha         1 mol       0.153000
     29 H5           5.2660     0.2500     1.9700 ha         1 mol       0.153000
     30 H6           4.0900    -3.5740    -0.0760 h4         1 mol       0.022100
     31 H7           1.6510    -3.5350    -0.4820 ha         1 mol       0.153000
     32 H8          -0.6520    -0.9260     0.8150 h1         1 mol       0.050700
     33 H9          -0.4160    -3.1180     1.2390 ho         1 mol       0.408000
     34 H10          0.5310    -1.4790    -1.9310 h1         1 mol       0.069700
     35 H11         -2.2870    -2.0900    -1.3230 hc         1 mol       0.059200
     36 H12         -1.2740    -2.5060    -2.6990 hc         1 mol       0.059200
     37 H13         -3.0740    -1.0170    -3.4930 hc         1 mol       0.062700
     38 H14         -1.6710     0.8110    -4.4510 hc         1 mol       0.047700
     39 H15         -0.7710    -0.7080    -4.4660 hc         1 mol       0.047700
     40 H16          0.8820     0.3500    -3.2880 h1         1 mol       0.057700
     41 H17         -0.0890     1.7890    -3.1170 h1         1 mol       0.057700
     42 H18         -1.7060     0.8490    -0.0130 h1         1 mol       0.052700
     43 H19         -1.5060     2.0960    -1.1910 h1         1 mol       0.052700
     44 H20         -3.1290     1.3560    -2.5360 hc         1 mol       0.061700
     45 H21         -4.8780    -0.1740    -1.8260 ha         1 mol       0.125000
     46 H22         -5.1270    -0.5830     0.5010 ha         1 mol       0.111500
     47 H23         -3.3890    -0.0830     0.8580 ha         1 mol       0.111500
     48 H24          0.3930     0.8110     1.4260 ha         1 mol       0.144000
@<TRIPOS>BOND
     1     1     2 1   
     2     1    25 1   
     3     1    26 1   
     4     1    27 1   
     5     2     3 1   
     6     3     4 ar  
     7     3    24 ar  
     8     4     5 ar  
     9     4    28 1   
    10     5     6 ar  
    11     5    29 1   
    12     6     7 ar  
    13     6    23 ar  
    14     7     8 ar  
    15     8     9 ar  
    16     8    30 1   
    17     9    10 ar  
    18     9    31 1   
    19    10    11 1   
    20    10    23 ar  
    21    11    12 1   
    22    11    13 1   
    23    11    32 1   
    24    12    33 1   
    25    13    14 1   
    26    13    18 1   
    27    13    34 1   
    28    14    15 1   
    29    14    35 1   
    30    14    36 1   
    31    15    16 1   
    32    15    20 1   
    33    15    37 1   
    34    16    17 1   
    35    16    38 1   
    36    16    39 1   
    37    17    18 1   
    38    17    40 1   
    39    17    41 1   
    40    18    19 1   
    41    19    20 1   
    42    19    42 1   
    43    19    43 1   
    44    20    21 1   
    45    20    44 1   
    46    21    22 2   
    47    21    45 1   
    48    22    46 1   
    49    22    47 1   
    50    23    24 ar  
    51    24    48 1   
@<TRIPOS>SUBSTRUCTURE
     1 mol         1 TEMP              0 ****  ****    0 ROOT
