@<TRIPOS>MOLECULE
mol
   26    26     1     0     0
SMALL
bcc


@<TRIPOS>ATOM
      1 C1           1.2380     1.5260    -0.6360 c3         1 mol       0.148100
      2 N1           2.0840     0.9640     0.4100 n7         1 mol      -0.840200
      3 C2           1.3320     0.6400     1.6430 c3         1 mol       0.138800
      4 C3           0.5300    -0.6920     1.5770 c3         1 mol       0.193400
      5 O1           1.3150    -1.6370     0.8320 oh         1 mol      -0.591800
      6 C4          -0.8890    -0.6910     1.0350 ca         1 mol      -0.107300
      7 C5          -1.4970    -1.9320     0.7400 ca         1 mol      -0.109000
      8 C6          -2.8130    -2.0110     0.2780 ca         1 mol      -0.134000
      9 C7          -3.5360    -0.8450     0.1090 ca         1 mol       0.112101
     10 O2          -4.8210    -0.9130    -0.3470 oh         1 mol      -0.494100
     11 C8          -2.9660     0.3890     0.4020 ca         1 mol       0.039100
     12 O3          -3.7370     1.5040     0.2070 oh         1 mol      -0.518100
     13 C9          -1.6580     0.4750     0.8770 ca         1 mol      -0.172000
     14 H1           0.6880     2.4030    -0.2820 h1         1 mol       0.034033
     15 H2           0.5380     0.7860    -1.0310 h1         1 mol       0.034033
     16 H3           1.8670     1.8470    -1.4720 h1         1 mol       0.034033
     17 H4           2.7990     1.6550     0.6460 hn         1 mol       0.366800
     18 H5           0.7390     1.4870     2.0030 h1         1 mol       0.038700
     19 H6           2.1090     0.4820     2.4030 h1         1 mol       0.038700
     20 H7           0.4630    -1.0800     2.6020 h1         1 mol       0.075700
     21 H8           1.9010    -1.0810     0.2770 ho         1 mol       0.416000
     22 H9          -0.9320    -2.8550     0.8720 ha         1 mol       0.145000
     23 H10         -3.2630    -2.9730     0.0540 ha         1 mol       0.154000
     24 H11         -5.1170     0.0180    -0.3830 ho         1 mol       0.437000
     25 H12         -3.1990     2.2870     0.4110 ho         1 mol       0.428000
     26 H13         -1.2460     1.4470     1.1170 ha         1 mol       0.133000
@<TRIPOS>BOND
     1     1     2 1   
     2     1    14 1   
     3     1    15 1   
     4     1    16 1   
     5     2     3 1   
     6     2    17 1   
     7     3     4 1   
     8     3    18 1   
     9     3    19 1   
    10     4     5 1   
    11     4     6 1   
    12     4    20 1   
    13     5    21 1   
    14     6     7 ar  
    15     6    13 ar  
    16     7     8 ar  
    17     7    22 1   
    18     8     9 ar  
    19     8    23 1   
    20     9    10 1   
    21     9    11 ar  
    22    10    24 1   
    23    11    12 1   
    24    11    13 ar  
    25    12    25 1   
    26    13    26 1   
@<TRIPOS>SUBSTRUCTURE
     1 mol         1 TEMP              0 ****  ****    0 ROOT
