@<TRIPOS>MOLECULE
TOL
   15    15     1     0     0
SMALL
bcc


@<TRIPOS>ATOM
      1 C1          -0.8040     0.5150     1.7020 c3         1 TOL      -0.053800
      2 C2           0.0960     0.2420     0.5340 ca         1 TOL      -0.077300
      3 C3          -0.3980    -0.3590    -0.6300 ca         1 TOL      -0.131000
      4 C4           0.4480    -0.5970    -1.7150 ca         1 TOL      -0.127000
      5 C5           1.7920    -0.2340    -1.6470 ca         1 TOL      -0.135000
      6 C6           2.2910     0.3700    -0.4940 ca         1 TOL      -0.127000
      7 C7           1.4460     0.6090     0.5910 ca         1 TOL      -0.131000
      8 H1          -0.3780     0.0920     2.6170 hc         1 TOL       0.044034
      9 H2          -0.9350     1.5950     1.8310 hc         1 TOL       0.044033
     10 H3          -1.7940     0.0680     1.5600 hc         1 TOL       0.044033
     11 H4          -1.4440    -0.6460    -0.7010 ha         1 TOL       0.130000
     12 H5           0.0570    -1.0660    -2.6140 ha         1 TOL       0.130000
     13 H6           2.4490    -0.4190    -2.4920 ha         1 TOL       0.130000
     14 H7           3.3380     0.6570    -0.4410 ha         1 TOL       0.130000
     15 H8           1.8480     1.0830     1.4840 ha         1 TOL       0.130000
@<TRIPOS>BOND
     1     1     2 1   
     2     1     8 1   
     3     1     9 1   
     4     1    10 1   
     5     2     3 ar  
     6     2     7 ar  
     7     3     4 ar  
     8     3    11 1   
     9     4     5 ar  
    10     4    12 1   
    11     5     6 ar  
    12     5    13 1   
    13     6     7 ar  
    14     6    14 1   
    15     7    15 1   
@<TRIPOS>SUBSTRUCTURE
     1 TOL         1 TEMP              0 ****  ****    0 ROOT
