@<TRIPOS>MOLECULE
mol
   33    34     1     0     0
SMALL
bcc


@<TRIPOS>ATOM
      1 C1          -1.7630     2.9170     3.2760 c3         1 mol      -0.093100
      2 C2          -1.4460     2.9060     1.7680 c3         1 mol      -0.056400
      3 C3          -2.7240     3.0900     0.9590 c          1 mol       0.638100
      4 O1          -2.4910     3.4940    -0.3090 oh         1 mol      -0.608100
      5 O2          -3.8750     2.9140     1.3290 o          1 mol      -0.545000
      6 C4          -0.5920     1.7030     1.3670 ca         1 mol      -0.105300
      7 C5           0.6240     1.4610     2.0310 ca         1 mol      -0.094000
      8 C6           1.4010     0.3390     1.7300 ca         1 mol      -0.144000
      9 C7           1.0000    -0.5490     0.7310 ca         1 mol      -0.088000
     10 C8          -0.1550    -0.2850    -0.0030 ca         1 mol      -0.164600
     11 C9          -0.9590     0.8150     0.3430 ca         1 mol      -0.063000
     12 C10         -0.6520    -1.1560    -1.0950 c          1 mol       0.589300
     13 O3          -1.8450    -1.4620    -1.0590 o          1 mol      -0.522100
     14 C11          0.1670    -1.5870    -2.2680 ca         1 mol      -0.169600
     15 C12          1.5640    -1.5590    -2.3240 ca         1 mol      -0.084000
     16 C13          2.2380    -2.0200    -3.4630 ca         1 mol      -0.144000
     17 C14          1.5250    -2.4770    -4.5690 ca         1 mol      -0.104000
     18 C15          0.1350    -2.4760    -4.5420 ca         1 mol      -0.144000
     19 C16         -0.5380    -2.0420    -3.3970 ca         1 mol      -0.084000
     20 H1          -1.4240     2.0120     3.7930 hc         1 mol       0.053367
     21 H2          -1.2560     3.7650     3.7510 hc         1 mol       0.053367
     22 H3          -2.8290     3.0320     3.4970 hc         1 mol       0.053367
     23 H4          -0.8460     3.8040     1.5610 hc         1 mol       0.086700
     24 H5          -3.3840     3.5210    -0.7120 ho         1 mol       0.444000
     25 H6           0.9630     2.1350     2.8160 ha         1 mol       0.137900
     26 H7           2.3130     0.1490     2.2910 ha         1 mol       0.139090
     27 H8           1.5840    -1.4480     0.5610 ha         1 mol       0.144009
     28 H9          -1.8880     0.9530    -0.2080 ha         1 mol       0.171000
     29 H10          2.1710    -1.1950    -1.5060 ha         1 mol       0.147000
     30 H11          3.3260    -2.0210    -3.4850 ha         1 mol       0.137000
     31 H12          2.0530    -2.8290    -5.4520 ha         1 mol       0.135000
     32 H13         -0.4300    -2.8150    -5.4060 ha         1 mol       0.137000
     33 H14         -1.6270    -2.0520    -3.3950 ha         1 mol       0.147000
@<TRIPOS>BOND
     1     1     2 1   
     2     1    20 1   
     3     1    21 1   
     4     1    22 1   
     5     2     3 1   
     6     2     6 1   
     7     2    23 1   
     8     3     4 1   
     9     3     5 2   
    10     4    24 1   
    11     6     7 ar  
    12     6    11 ar  
    13     7     8 ar  
    14     7    25 1   
    15     8     9 ar  
    16     8    26 1   
    17     9    10 ar  
    18     9    27 1   
    19    10    11 ar  
    20    10    12 1   
    21    11    28 1   
    22    12    13 2   
    23    12    14 1   
    24    14    15 ar  
    25    14    19 ar  
    26    15    16 ar  
    27    15    29 1   
    28    16    17 ar  
    29    16    30 1   
    30    17    18 ar  
    31    17    31 1   
    32    18    19 ar  
    33    18    32 1   
    34    19    33 1   
@<TRIPOS>SUBSTRUCTURE
     1 mol         1 TEMP              0 ****  ****    0 ROOT
