@<TRIPOS>MOLECULE
mol
   45    47     1     0     0
SMALL
bcc


@<TRIPOS>ATOM
      1 C1          -3.7100    -2.7250    -1.4000 c3         1 mol       0.158100
      2 N1          -4.1190    -1.3700    -1.7740 n3         1 mol      -0.745600
      3 C2          -5.1090    -1.4470    -2.8550 c3         1 mol       0.158100
      4 C3          -2.9860    -0.5240    -2.1960 c3         1 mol       0.168800
      5 C4          -2.1340     0.0650    -1.0630 c3         1 mol      -0.110400
      6 C5          -1.1860    -0.9350    -0.3850 c3         1 mol       0.228800
      7 N2          -0.1850    -0.2560     0.4920 nh         1 mol      -0.588400
      8 C6          -0.6390     0.0870     1.8140 ca         1 mol       0.176600
      9 C7          -1.9980    -0.0910     2.1930 ca         1 mol      -0.172000
     10 C8          -2.5210     0.2860     3.4380 ca         1 mol      -0.114500
     11 C9          -1.6990     0.8680     4.3780 ca         1 mol      -0.150500
     12 C10         -0.3600     1.0480     4.0690 ca         1 mol      -0.114000
     13 C11          0.1820     0.6500     2.8170 ca         1 mol      -0.098800
     14 C12          1.6660     0.8500     2.6720 c3         1 mol      -0.027100
     15 C13          2.3330    -0.3980     2.1230 c3         1 mol      -0.027100
     16 C14          2.3190    -0.3290     0.6250 ca         1 mol      -0.098800
     17 C15          3.5730    -0.3580    -0.0310 ca         1 mol      -0.114000
     18 C16          3.6700    -0.2410    -1.4110 ca         1 mol      -0.150500
     19 C17          2.5140    -0.0790    -2.1510 ca         1 mol      -0.114500
     20 C18          1.2720    -0.0570    -1.5060 ca         1 mol      -0.172000
     21 C19          1.1210    -0.2100    -0.1040 ca         1 mol       0.176600
     22 H1          -4.5510    -3.4280    -1.4400 h1         1 mol       0.031200
     23 H2          -2.9190    -3.1200    -2.0460 h1         1 mol       0.031200
     24 H3          -3.3720    -2.7490    -0.3620 h1         1 mol       0.031200
     25 H4          -5.4670    -0.4490    -3.1280 h1         1 mol       0.031200
     26 H5          -5.9920    -2.0060    -2.5240 h1         1 mol       0.031200
     27 H6          -4.7040    -1.9320    -3.7500 h1         1 mol       0.031200
     28 H7          -3.3950     0.3500    -2.7230 h1         1 mol       0.032200
     29 H8          -2.3510    -1.0400    -2.9280 h1         1 mol       0.032200
     30 H9          -2.7950     0.5530    -0.3390 hc         1 mol       0.049200
     31 H10         -1.5440     0.8860    -1.4900 hc         1 mol       0.049200
     32 H11         -1.7220    -1.6880     0.1970 h1         1 mol       0.063200
     33 H12         -0.6980    -1.5520    -1.1520 h1         1 mol       0.063200
     34 H13         -2.7320    -0.5280     1.5240 ha         1 mol       0.134000
     35 H14         -3.5740     0.1270     3.6510 ha         1 mol       0.129500
     36 H15         -2.0900     1.1720     5.3440 ha         1 mol       0.131500
     37 H16          0.2840     1.4960     4.8240 ha         1 mol       0.129500
     38 H17          1.8590     1.7440     2.0670 hc         1 mol       0.051450
     39 H18          2.1070     1.0450     3.6580 hc         1 mol       0.051450
     40 H19          1.8650    -1.3280     2.4670 hc         1 mol       0.051450
     41 H20          3.3680    -0.4220     2.4860 hc         1 mol       0.051450
     42 H21          4.4900    -0.4600     0.5460 ha         1 mol       0.129500
     43 H22          4.6400    -0.2610    -1.8970 ha         1 mol       0.131500
     44 H23          2.5670     0.0330    -3.2300 ha         1 mol       0.129500
     45 H24          0.4100     0.0990    -2.1460 ha         1 mol       0.134000
@<TRIPOS>BOND
     1     1     2 1   
     2     1    22 1   
     3     1    23 1   
     4     1    24 1   
     5     2     3 1   
     6     2     4 1   
     7     3    25 1   
     8     3    26 1   
     9     3    27 1   
    10     4     5 1   
    11     4    28 1   
    12     4    29 1   
    13     5     6 1   
    14     5    30 1   
    15     5    31 1   
    16     6     7 1   
    17     6    32 1   
    18     6    33 1   
    19     7     8 1   
    20     7    21 1   
    21     8     9 ar  
    22     8    13 ar  
    23     9    10 ar  
    24     9    34 1   
    25    10    11 ar  
    26    10    35 1   
    27    11    12 ar  
    28    11    36 1   
    29    12    13 ar  
    30    12    37 1   
    31    13    14 1   
    32    14    15 1   
    33    14    38 1   
    34    14    39 1   
    35    15    16 1   
    36    15    40 1   
    37    15    41 1   
    38    16    17 ar  
    39    16    21 ar  
    40    17    18 ar  
    41    17    42 1   
    42    18    19 ar  
    43    18    43 1   
    44    19    20 ar  
    45    19    44 1   
    46    20    21 ar  
    47    20    45 1   
@<TRIPOS>SUBSTRUCTURE
     1 mol         1 TEMP              0 ****  ****    0 ROOT
